
     RDKit          3D

 90 94  0  0  0  0  0  0  0  0999 V2000
   -5.7997   -1.1568    0.8589 C   0  0  0  0  0  0  0  0  0  0  0  0
   -4.7043   -0.1249    0.5786 C   0  0  0  0  0  0  0  0  0  0  0  0
   -5.1118    1.2197    1.0008 N   0  0  0  0  0  0  0  0  0  0  0  0
   -4.6974    2.3849    0.2483 C   0  0  0  0  0  0  0  0  0  0  0  0
   -5.3888    3.5268    0.9628 C   0  0  0  0  0  0  0  0  0  0  0  0
   -5.4041    3.0765    2.4148 C   0  0  0  0  0  0  0  0  0  0  0  0
   -5.4179    1.5677    2.3153 C   0  0  0  0  0  0  0  0  0  0  0  0
   -5.6074    0.8112    3.2521 O   0  0  0  0  0  0  0  0  0  0  0  0
   -3.3484   -0.5162    1.2049 C   0  0  0  0  0  0  0  0  0  0  0  0
   -2.4675   -1.3512    0.2447 C   0  0  0  0  0  0  0  0  0  0  0  0
   -2.7745   -2.7804    0.3409 N   0  0  0  0  0  0  0  0  0  0  0  0
   -3.2415   -3.5474   -0.7846 C   0  0  0  0  0  0  0  0  0  0  0  0
   -3.7522   -4.8242   -0.1481 C   0  0  0  0  0  0  0  0  0  0  0  0
   -2.8443   -5.0105    1.0604 C   0  0  0  0  0  0  0  0  0  0  0  0
   -2.4760   -3.5941    1.4326 C   0  0  0  0  0  0  0  0  0  0  0  0
   -1.9584   -3.2526    2.4824 O   0  0  0  0  0  0  0  0  0  0  0  0
   -0.9603   -1.0865    0.4724 C   0  0  0  0  0  0  0  0  0  0  0  0
   -0.5137    0.2848   -0.0761 C   0  0  0  0  0  0  0  0  0  0  0  0
   -0.6006    0.3975   -1.5339 N   0  0  0  0  0  0  0  0  0  0  0  0
   -0.1659   -0.6123   -2.4673 C   0  0  0  0  0  0  0  0  0  0  0  0
   -0.6022   -0.0605   -3.8110 C   0  0  0  0  0  0  0  0  0  0  0  0
   -0.5140    1.4482   -3.6310 C   0  0  0  0  0  0  0  0  0  0  0  0
   -0.7954    1.6276   -2.1623 C   0  0  0  0  0  0  0  0  0  0  0  0
   -1.1284    2.6729   -1.6275 O   0  0  0  0  0  0  0  0  0  0  0  0
    0.8189    0.8060    0.5281 C   0  0  0  0  0  0  0  0  0  0  0  0
    2.0372   -0.1410    0.5931 C   0  0  0  0  0  0  0  0  0  0  0  0
    2.8059   -0.3199   -0.6397 N   0  0  0  0  0  0  0  0  0  0  0  0
    3.4517   -1.5846   -0.9201 C   0  0  0  0  0  0  0  0  0  0  0  0
    4.5065   -1.2365   -1.9511 C   0  0  0  0  0  0  0  0  0  0  0  0
    3.8998   -0.0630   -2.6959 C   0  0  0  0  0  0  0  0  0  0  0  0
    3.0671    0.6144   -1.6314 C   0  0  0  0  0  0  0  0  0  0  0  0
    2.6815    1.7691   -1.6992 O   0  0  0  0  0  0  0  0  0  0  0  0
    2.9361    0.1071    1.8330 C   0  0  0  0  0  0  0  0  0  0  0  0
    3.7635    1.4015    2.0378 C   0  0  0  0  0  0  0  0  0  0  0  0
    5.1201    1.3391    1.4773 N   0  0  0  0  0  0  0  0  0  0  0  0
    5.5669    2.0664    0.3097 C   0  0  0  0  0  0  0  0  0  0  0  0
    7.0777    1.9663    0.3962 C   0  0  0  0  0  0  0  0  0  0  0  0
    7.3198    0.6310    1.0897 C   0  0  0  0  0  0  0  0  0  0  0  0
    6.1001    0.4741    1.9558 C   0  0  0  0  0  0  0  0  0  0  0  0
    5.9856   -0.3069    2.8846 O   0  0  0  0  0  0  0  0  0  0  0  0
    3.0377    2.7103    1.7479 C   0  0  0  0  0  0  0  0  0  0  0  0
   -5.9678   -1.3070    1.9282 H   0  0  0  0  0  0  0  0  0  0  0  0
   -5.5447   -2.1271    0.4287 H   0  0  0  0  0  0  0  0  0  0  0  0
   -6.7488   -0.8332    0.4192 H   0  0  0  0  0  0  0  0  0  0  0  0
   -4.6039   -0.0584   -0.5133 H   0  0  0  0  0  0  0  0  0  0  0  0
   -3.6066    2.4799    0.3064 H   0  0  0  0  0  0  0  0  0  0  0  0
   -5.0131    2.2982   -0.7959 H   0  0  0  0  0  0  0  0  0  0  0  0
   -4.8846    4.4876    0.8172 H   0  0  0  0  0  0  0  0  0  0  0  0
   -6.4185    3.6251    0.5982 H   0  0  0  0  0  0  0  0  0  0  0  0
   -6.2838    3.4478    2.9491 H   0  0  0  0  0  0  0  0  0  0  0  0
   -4.4925    3.3809    2.9375 H   0  0  0  0  0  0  0  0  0  0  0  0
   -2.8190    0.4013    1.4757 H   0  0  0  0  0  0  0  0  0  0  0  0
   -3.5038   -1.0412    2.1530 H   0  0  0  0  0  0  0  0  0  0  0  0
   -2.6975   -1.0651   -0.7882 H   0  0  0  0  0  0  0  0  0  0  0  0
   -4.0253   -3.0134   -1.3236 H   0  0  0  0  0  0  0  0  0  0  0  0
   -2.3961   -3.7303   -1.4538 H   0  0  0  0  0  0  0  0  0  0  0  0
   -3.7372   -5.6753   -0.8332 H   0  0  0  0  0  0  0  0  0  0  0  0
   -4.7852   -4.6803    0.1913 H   0  0  0  0  0  0  0  0  0  0  0  0
   -3.3624   -5.5086    1.8835 H   0  0  0  0  0  0  0  0  0  0  0  0
   -1.9344   -5.5568    0.7950 H   0  0  0  0  0  0  0  0  0  0  0  0
   -0.3729   -1.8861    0.0061 H   0  0  0  0  0  0  0  0  0  0  0  0
   -0.7485   -1.1314    1.5475 H   0  0  0  0  0  0  0  0  0  0  0  0
   -1.2399    1.0270    0.2768 H   0  0  0  0  0  0  0  0  0  0  0  0
    0.9166   -0.7219   -2.4196 H   0  0  0  0  0  0  0  0  0  0  0  0
   -0.6387   -1.5766   -2.2605 H   0  0  0  0  0  0  0  0  0  0  0  0
    0.0093   -0.4269   -4.6412 H   0  0  0  0  0  0  0  0  0  0  0  0
   -1.6443   -0.3426   -4.0085 H   0  0  0  0  0  0  0  0  0  0  0  0
    0.4903    1.8224   -3.8477 H   0  0  0  0  0  0  0  0  0  0  0  0
   -1.2550    1.9721   -4.2407 H   0  0  0  0  0  0  0  0  0  0  0  0
    1.0730    1.7526    0.0467 H   0  0  0  0  0  0  0  0  0  0  0  0
    0.5685    1.0641    1.5672 H   0  0  0  0  0  0  0  0  0  0  0  0
    1.6202   -1.1375    0.7788 H   0  0  0  0  0  0  0  0  0  0  0  0
    3.8982   -2.0147   -0.0167 H   0  0  0  0  0  0  0  0  0  0  0  0
    2.6967   -2.2742   -1.3185 H   0  0  0  0  0  0  0  0  0  0  0  0
    4.7565   -2.0787   -2.6025 H   0  0  0  0  0  0  0  0  0  0  0  0
    5.4291   -0.9195   -1.4459 H   0  0  0  0  0  0  0  0  0  0  0  0
    4.6639    0.6120   -3.0862 H   0  0  0  0  0  0  0  0  0  0  0  0
    3.2417   -0.3944   -3.5044 H   0  0  0  0  0  0  0  0  0  0  0  0
    2.2718    0.0262    2.7062 H   0  0  0  0  0  0  0  0  0  0  0  0
    3.6113   -0.7525    1.9283 H   0  0  0  0  0  0  0  0  0  0  0  0
    3.9497    1.4174    3.1201 H   0  0  0  0  0  0  0  0  0  0  0  0
    5.2049    1.5604   -0.5866 H   0  0  0  0  0  0  0  0  0  0  0  0
    5.2315    3.1094    0.3244 H   0  0  0  0  0  0  0  0  0  0  0  0
    7.4690    2.7785    1.0241 H   0  0  0  0  0  0  0  0  0  0  0  0
    7.5662    2.0330   -0.5800 H   0  0  0  0  0  0  0  0  0  0  0  0
    8.2288    0.6464    1.6960 H   0  0  0  0  0  0  0  0  0  0  0  0
    7.3559   -0.1981    0.3747 H   0  0  0  0  0  0  0  0  0  0  0  0
    3.6272    3.5610    2.1093 H   0  0  0  0  0  0  0  0  0  0  0  0
    2.0712    2.7472    2.2646 H   0  0  0  0  0  0  0  0  0  0  0  0
    2.8719    2.8673    0.6799 H   0  0  0  0  0  0  0  0  0  0  0  0
  1  2  1  0
  2  3  1  0
  3  4  1  0
  4  5  1  0
  5  6  1  0
  6  7  1  0
  7  8  2  0
  2  9  1  0
  9 10  1  0
 10 11  1  0
 11 12  1  0
 12 13  1  0
 13 14  1  0
 14 15  1  0
 15 16  2  0
 10 17  1  0
 17 18  1  0
 18 19  1  0
 19 20  1  0
 20 21  1  0
 21 22  1  0
 22 23  1  0
 23 24  2  0
 18 25  1  0
 25 26  1  0
 26 27  1  0
 27 28  1  0
 28 29  1  0
 29 30  1  0
 30 31  1  0
 31 32  2  0
 26 33  1  0
 33 34  1  0
 34 35  1  0
 35 36  1  0
 36 37  1  0
 37 38  1  0
 38 39  1  0
 39 40  2  0
 34 41  1  0
  7  3  1  0
 15 11  1  0
 23 19  1  0
 31 27  1  0
 39 35  1  0
  1 42  1  0
  1 43  1  0
  1 44  1  0
  2 45  1  0
  4 46  1  0
  4 47  1  0
  5 48  1  0
  5 49  1  0
  6 50  1  0
  6 51  1  0
  9 52  1  0
  9 53  1  0
 10 54  1  0
 12 55  1  0
 12 56  1  0
 13 57  1  0
 13 58  1  0
 14 59  1  0
 14 60  1  0
 17 61  1  0
 17 62  1  0
 18 63  1  0
 20 64  1  0
 20 65  1  0
 21 66  1  0
 21 67  1  0
 22 68  1  0
 22 69  1  0
 25 70  1  0
 25 71  1  0
 26 72  1  0
 28 73  1  0
 28 74  1  0
 29 75  1  0
 29 76  1  0
 30 77  1  0
 30 78  1  0
 33 79  1  0
 33 80  1  0
 34 81  1  0
 36 82  1  0
 36 83  1  0
 37 84  1  0
 37 85  1  0
 38 86  1  0
 38 87  1  0
 41 88  1  0
 41 89  1  0
 41 90  1  0
M  END
